CRYSTAL 
PRIMVEC 
4.695  2.7106595138452927  0.0
4.695  -2.7106595138452927  0.0
0.0  0.0  70.424373
PRIMCOORD 
83  1
1  1.565    -0.903553  0.760016
1  4.695    -0.903553  0.760016
1  7.825    -0.903553  0.760016
6  1.565    -0.903553  1.922016
6  4.695    -0.903553  1.922016
6  7.825    -0.903553  1.922016
14  0.0    0.0  2.562687
14  3.13    0.0  2.562687
14  6.26    0.0  2.562687
6  0.0    0.0  4.484703
6  3.13    0.0  4.484703
6  6.26    0.0  4.484703
14  1.565    -0.903553  5.125375
14  4.695    -0.903553  5.125375
14  7.825    -0.903553  5.125375
6  1.565    -0.903553  7.047391
6  4.695    -0.903553  7.047391
6  7.825    -0.903553  7.047391
14  3.13    -1.807106  7.688062
14  6.26    -1.807106  7.688062
14  9.39    -1.807106  7.688062
6  3.13    -1.807106  9.610078
6  6.26    -1.807106  9.610078
6  9.39    -1.807106  9.610078
14  1.565    -0.903553  10.25075
14  4.695    -0.903553  10.25075
14  7.825    -0.903553  10.25075
6  1.565    -0.903553  12.172766
6  4.695    -0.903553  12.172766
6  7.825    -0.903553  12.172766
14  0.0    0.0  12.813437
14  3.13    0.0  12.813437
14  6.26    0.0  12.813437
6  0.0    0.0  14.735453
6  3.13    0.0  14.735453
6  6.26    0.0  14.735453
14  1.565    -0.903553  15.376125
14  4.695    -0.903553  15.376125
14  7.825    -0.903553  15.376125
6  1.565    -0.903553  17.298141
6  4.695    -0.903553  17.298141
6  7.825    -0.903553  17.298141
14  3.13    -1.807106  17.938812
14  6.26    -1.807106  17.938812
14  9.39    -1.807106  17.938812
6  3.130811    -1.807473  19.86397
6  9.389499    -1.807557  19.864065
6  6.260273    -1.808793  19.864066
14  4.698831    -0.90242  20.497658
14  7.821706    -0.902259  20.497823
14  1.565188    -0.908735  20.498103
6  4.668477    -0.920342  22.428178
6  7.852509    -0.920146  22.428409
6  1.565443    -0.873876  22.428813
14  6.260432    -0.001597  22.834144
14  3.13058    -0.001006  23.094549
14  0.000573    -0.001  23.094974
6  0.001077    0.001435  25.109639
6  3.131024    0.001365  25.112208
6  0.813794    1.405186  25.40585
6  -1.621098    0.003396  25.406425
6  0.810456    -1.404191  25.406686
6  2.318003    1.405884  25.40717
6  4.753834    0.003375  25.40734
6  2.321098    -1.404849  25.408039
6  0.0002    -5.8e-05  28.638389
6  3.912608    1.355073  28.642109
6  1.565438    -8.9e-05  28.642123
6  3.912581    -1.355191  28.642134
6  2.347517    1.355325  28.645277
6  4.695382    6.8e-05  28.645304
6  2.347729    -1.355636  28.645334
6  6.260199    -8.3e-05  28.648717
79  0.0002    -5.8e-05  32.838389
79  0.0002    -5.8e-05  35.432389
79  0.0002    -5.8e-05  38.026389
79  0.0002    -5.8e-05  40.620389
79  0.0002    -5.8e-05  43.214389
79  0.0002    -5.8e-05  45.808389
79  0.0002    -5.8e-05  48.402389
79  0.0002    -5.8e-05  50.99638899999999
79  0.0002    -5.8e-05  53.590389
79  0.0002    -5.8e-05  56.184388999999996
